 Abaqus/Standard 3DEXPERIENCE R2016x                  DATE 15-Jul-2020 TIME 22:38:32
 SUMMARY OF JOB INFORMATION:
 STEP  INC ATT SEVERE EQUIL TOTAL  TOTAL      STEP       INC OF       DOF    IF
               DISCON ITERS ITERS  TIME/    TIME/LPF    TIME/LPF    MONITOR RIKS
               ITERS               FREQ
   1     1   1U    0     2     2             0.000      1.000                 R
   1     1   2U    0     2     2             0.000      0.3015                R
   1     1   3     0     2     2             0.0157     0.01568               R
   1     2   1U    0     2     2             0.0157     0.8721                R
   1     2   2U    0     4     4             0.0157     0.001858              R
   1     2   3     0     2     2             0.0159     0.0002439             R
   1     3   1     0     2     2             0.0163     0.0003658             R
   1     4   1     0     2     2             0.0168     0.0005485             R
   1     5   1     0     2     2             0.0177     0.0008221             R
   1     6   1U    0     4     4             0.0177     1.794                 R
   1     6   2     0     4     4             0.0181     0.0004044             R
   1     7   1     0     4     4             0.0182     0.0001157             R
   1     8   1     0     3     3             0.0183     0.0001238             R
   1     9   1     0     3     3             0.0185     0.0001681             R
   1    10   1     0     2     2             0.0187     0.0002519             R
   1    11   1     0     4     4             0.0191     0.0003959             R
   1    12   1     0     3     3             0.0197     0.0006141             R
   1    13   1     0     3     3             0.0208     0.001037              R
   1    14   1     0     3     3             0.0226     0.001804              R
   1    15   1     0     3     3             0.0259     0.003300              R
   1    16   1     0     3     3             0.0320     0.006140              R
   1    17   1     0     3     3             0.0435     0.01145               R
   1    18   1     0     3     3             0.0649     0.02141               R
   1    19   1     0     4     4             0.104      0.03957               R
   1    20   1U    0     4     4             0.104     -8.034                 R
   1    20   2     0     4     4             0.130      0.02532               R
   1    21   1U    0     3     3             0.130     -4.971                 R
   1    21   2     0     3     3             0.145      0.01506               R
   1    22   1     0     4     4             0.168      0.02359               R
   1    23   1U    0     3     3             0.168     -10.37                 R
   1    23   2     0     3     3             0.182      0.01374               R
   1    24   1     0     4     4             0.203      0.02121               R
   1    25   1U    0     3     3             0.203     -8.265                 R
   1    25   2     0     4     4             0.216      0.01222               R
   1    26   1U    0     3     3             0.216     -12.78                 R
   1    26   2     0     3     3             0.223      0.006959              R
   1    27   1     0     3     3             0.233      0.01055               R
   1    28   1U    0     3     3             0.233     -17.30                 R
   1    28   2     0     3     3             0.239      0.005994              R
   1    29   1     0     3     3             0.248      0.009065              R
   1    30   1     0     4     4             0.262      0.01376               R
   1    31   1U    0     3     3             0.262     -16.81                 R
   1    31   2     0     3     3             0.270      0.007822              R
   1    32   1     0     4     4             0.282      0.01184               R
   1    33   1U    0     3     3             0.282     -18.13                 R
   1    33   2     0     3     3             0.288      0.006715              R
   1    34   1     0     4     4             0.298      0.01015               R
   1    35   1U    0     3     3             0.298      45.93                 R
   1    35   2     0     3     3             0.304      0.005742              R
   1    36   1     0     4     4             0.313      0.008664              R
   1    37   1U    0     3     3             0.313      48.53                 R
   1    37   2     0     3     3             0.318      0.004896              R
   1    38   1     0     4     4             0.325      0.007380              R
   1    39   1U    0     3     3             0.325      79.93                 R
   1    39   2     0     3     3             0.331      0.005465              R
   1    40   1     0     4     4             0.339      0.008238              R
   1    41   1U    0     3     3             0.339     -10.04                 R
   1    41   2     0     4     4             0.347      0.008282              R
   1    42   1U    0     3     3             0.347     -9.826                 R
   1    42   2U    0     3     3             0.347     -9.824                 R
                          
 THE ANALYSIS HAS NOT BEEN COMPLETED
