 Abaqus/Standard 3DEXPERIENCE R2016x                  DATE 15-Jul-2020 TIME 22:38:42
 SUMMARY OF JOB INFORMATION:
 STEP  INC ATT SEVERE EQUIL TOTAL  TOTAL      STEP       INC OF       DOF    IF
               DISCON ITERS ITERS  TIME/    TIME/LPF    TIME/LPF    MONITOR RIKS
               ITERS               FREQ
   1     1   1U    0     2     2             0.000      1.000                 R
   1     1   2U    0     2     2             0.000      0.2948                R
   1     1   3U    0     2     2             0.000      4.871                 R
   1     1   4     0     2     2             0.000244   0.0002442             R
   1     2   1     0     2     2             0.000488   0.0002442             R
   1     3   1     0     2     2             0.000855   0.0003663             R
   1     4   1     0     2     2             0.00140    0.0005495             R
   1     5   1     0     2     2             0.00223    0.0008245             R
   1     6   1     0     2     2             0.00347    0.001237              R
   1     7   1     0     2     2             0.00532    0.001856              R
   1     8   1     0     2     2             0.00811    0.002786              R
   1     9   1     0     2     2             0.0123     0.004179              R
   1    10   1U    0     2     2             0.0123     0.1935                R
   1    10   2U    0     4     4             0.0123     405.8                 R
   1    10   3     0     2     2             0.0125     0.0002202             R
   1    11   1     0     2     2             0.0128     0.0003303             R
   1    12   1     0     3     3             0.0133     0.0004942             R
   1    13   1     0     3     3             0.0135     0.0001689             R
   1    14   1     0     3     3             0.0137     0.0001701             R
   1    15   1     0     2     2             0.0139     0.0002385             R
   1    16   1     0     4     4             0.0143     0.0003476             R
   1    17   1     0     3     3             0.0148     0.0005391             R
   1    18   1     0     3     3             0.0157     0.0008600             R
   1    19   1     0     3     3             0.0171     0.001420              R
   1    20   1     0     3     3             0.0195     0.002437              R
   1    21   1     0     3     3             0.0237     0.004220              R
   1    22   1     0     3     3             0.0312     0.007504              R
   1    23   1     0     3     3             0.0447     0.01350               R
   1    24   1     0     4     4             0.0692     0.02445               R
   1    25   1U    0     4     4             0.0692     0.7767                R
   1    25   2     0     3     3             0.0848     0.01560               R
   1    26   1     0     4     4             0.110      0.02556               R
   1    27   1U    0     2     2             0.110     -3.702                 R
   1    27   2     0     4     4             0.126      0.01537               R
   1    28   1U    0     3     3             0.126     -27.98                 R
   1    28   2     0     3     3             0.135      0.008936              R
   1    29   1     0     4     4             0.148      0.01377               R
   1    30   1U    0     3     3             0.148     -8.458                 R
   1    30   2     0     3     3             0.156      0.007929              R
   1    31   1     0     4     4             0.168      0.01213               R
   1    32   1U    0     3     3             0.168     -9.024                 R
   1    32   2     0     3     3             0.175      0.006942              R
   1    33   1     0     4     4             0.186      0.01057               R
   1    34   1     0     4     4             0.202      0.01618               R
   1    35   1U    0     3     3             0.202     -7.428                 R
   1    35   2     0     4     4             0.211      0.009267              R
   1    36   1U    0     3     3             0.211     -10.01                 R
   1    36   2     0     3     3             0.217      0.005262              R
   1    37   1     0     4     4             0.225      0.007961              R
   1    38   1     0     4     4             0.237      0.01208               R
   1    39   1U    0     3     3             0.237     -9.362                 R
   1    39   2     0     4     4             0.244      0.006869              R
   1    40   1     0     4     4             0.254      0.01040               R
   1    41   1U    0     3     3             0.254     -10.22                 R
   1    41   2     0     4     4             0.260      0.005898              R
   1    42   1     0     4     4             0.269      0.008910              R
   1    43   1U    0     3     3             0.269     -11.05                 R
   1    43   2     0     4     4             0.274      0.005045              R
   1    44   1     0     4     4             0.281      0.007610              R
   1    45   1U    0     3     3             0.281     -11.27                 R
   1    45   2     0     3     3             0.286      0.004302              R
   1    46   1     0     4     4             0.292      0.006484              R
   1    47   1U    0     3     3             0.292     -11.65                 R
   1    47   2     0     3     3             0.296      0.003661              R
   1    48   1     0     4     4             0.301      0.005514              R
   1    49   1U    0     3     3             0.301     -14.15                 R
   1    49   2     0     3     3             0.305      0.003111              R
   1    50   1     0     4     4             0.309      0.004682              R
   1    51   1     0     4     4             0.316      0.007053              R
   1    52   1U    0     3     3             0.316     -16.20                 R
   1    52   2     0     4     4             0.320      0.003983              R
   1    53   1     0     4     4             0.326      0.005996              R
   1    54   1U    0     3     3             0.326     -16.77                 R
   1    54   2     0     4     4             0.330      0.003384              R
   1    55   1     0     4     4             0.335      0.005090              R
   1    56   1U    0     3     3             0.335     -17.24                 R
   1    56   2     0     4     4             0.339      0.003913              R
   1    57   1     0     4     4             0.345      0.005888              R
   1    58   1U    0     3     3             0.345     -17.58                 R
   1    58   2     0     4     4             0.350      0.005910              R
   1    59   1U    0     3     3             0.350      1.007                 R
   1    59   2U    0     3     3             0.350      1.008                 R
                          
 THE ANALYSIS HAS NOT BEEN COMPLETED
