 Abaqus/Standard 3DEXPERIENCE R2016x                  DATE 15-Jul-2020 TIME 22:38:53
 SUMMARY OF JOB INFORMATION:
 STEP  INC ATT SEVERE EQUIL TOTAL  TOTAL      STEP       INC OF       DOF    IF
               DISCON ITERS ITERS  TIME/    TIME/LPF    TIME/LPF    MONITOR RIKS
               ITERS               FREQ
   1     1   1U    0     2     2             0.000      100.7                 R
   1     1   2U    0     3     3             0.000      0.2635                R
   1     1   3     0     2     2             0.0157     0.01568               R
   1     2   1U    0     3     3             0.0157    -1528.                 R
   1     2   2     0     2     2             0.0196     0.003896              R
   1     3   1     0     3     3             0.0254     0.005787              R
   1     4   1U    0     3     3             0.0254    -2.676e+004            R
   1     4   2U    0     4     4             0.0254    -42.71                 R
   1     4   3     0     2     2             0.0257     0.0003010             R
   1     5   1     0     2     2             0.0261     0.0004505             R
   1     6   1     0     3     3             0.0266     0.0005256             R
   1     7   1     0     2     2             0.0267     0.0001066             R
   1     8   1     0     2     2             0.0268     9.728e-005            R
   1     9   1     0     3     3             0.0269     0.0001076             R
   1    10   1     0     3     3             0.0271     0.0001769             R
   1    11   1     0     3     3             0.0274     0.0003050             R
   1    12   1U    0     4     4             0.0274    -16.34                 R
   1    12   2     0     3     3             0.0276     0.0002028             R
   1    13   1U    0     4     4             0.0276    -42.59                 R
   1    13   2U    0     4     4             0.0276     9.089                 R
   1    13   3     0     3     3             0.0276     1.674e-005            R
   1    14   1     0     5     5             0.0277     1.711e-005            R
   1    15   1     0     2     2             0.0277     1.674e-005            R
   1    16   1     0     3     3             0.0277     1.613e-005            R
   1    17   1     0     3     3             0.0277     2.446e-005            R
   1    18   1     0     3     3             0.0278     3.733e-005            R
   1    19   1     0     2     2             0.0278     5.740e-005            R
   1    20   1     0     2     2             0.0279     8.927e-005            R
   1    21   1     0     2     2             0.0280     0.0001410             R
   1    22   1     0     2     2             0.0283     0.0002271             R
   1    23   1     0     2     2             0.0287     0.0003752             R
   1    24   1     0     2     2             0.0293     0.0006385             R
   1    25   1     0     3     3             0.0304     0.001121              R
   1    26   1     0     3     3             0.0324     0.002027              R
   1    27   1     0     3     3             0.0362     0.003757              R
   1    28   1     0     3     3             0.0433     0.007148              R
   1    29   1     0     3     3             0.0571     0.01377               R
   1    30   1     0     3     3             0.0833     0.02615               R
   1    31   1     0     4     4             0.132      0.04841               R
   1    32   1U    0     4     4             0.132     -2.990                 R
   1    32   2     0     4     4             0.163      0.03095               R
   1    33   1U    0     3     3             0.163     -9.979                 R
   1    33   2     0     4     4             0.181      0.01837               R
   1    34   1     0     4     4             0.210      0.02869               R
   1    35   1U    0     3     3             0.210     -9.742                 R
   1    35   2     0     4     4             0.226      0.01667               R
   1    36   1U    0     3     3             0.226      39.50                 R
   1    36   2     0     3     3             0.236      0.009534              R
   1    37   1     0     4     4             0.250      0.01451               R
   1    38   1U    0     4     4             0.250     -15.61                 R
   1    38   2     0     3     3             0.259      0.008258              R
   1    39   1     0     4     4             0.271      0.01252               R
   1    40   1U    0     4     4             0.271     -15.22                 R
   1    40   2     0     3     3             0.278      0.007107              R
   1    41   1     0     3     3             0.289      0.01075               R
   1    42   1     0     4     4             0.305      0.01631               R
   1    43   1U    0     4     4             0.305     -12.64                 R
   1    43   2     0     3     3             0.315      0.009264              R
   1    44   1     0     4     4             0.329      0.01402               R
   1    45   1U    0     4     4             0.329     -14.33                 R
   1    45   2     0     3     3             0.337      0.007945              R
   1    46   1     0     4     4             0.349      0.01200               R
   1    47   1U    0     3     3             0.349     -9.795                 R
   1    47   2     0     3     3             0.355      0.006789              R
   1    48   1     0     4     4             0.366      0.01021               R
   1    49   1U    0     3     3             0.366     -11.01                 R
   1    49   2     0     3     3             0.371      0.005761              R
   1    50   1     0     4     4             0.380      0.008683              R
   1    51   1U    0     3     3             0.380      15.74                 R
   1    51   2     0     4     4             0.387      0.007137              R
   1    52   1U    0     3     3             0.387      15.78                 R
   1    52   2U    0     3     3             0.387      15.78                 R
                          
 THE ANALYSIS HAS NOT BEEN COMPLETED
