 Abaqus/Standard 3DEXPERIENCE R2016x                  DATE 15-Jul-2020 TIME 22:39:24
 SUMMARY OF JOB INFORMATION:
 STEP  INC ATT SEVERE EQUIL TOTAL  TOTAL      STEP       INC OF       DOF    IF
               DISCON ITERS ITERS  TIME/    TIME/LPF    TIME/LPF    MONITOR RIKS
               ITERS               FREQ
   1     1   1U    0     2     2             0.000      1.000                 R
   1     1   2U    0     2     2             0.000      0.2994                R
   1     1   3     0     2     2             0.0157     0.01568               R
   1     2   1U    0     2     2             0.0157     0.9194                R
   1     2   2     0     2     2             0.0196     0.003896              R
   1     3   1U    0     2     2             0.0196     1.176                 R
   1     3   2U    0     4     4             0.0196     0.001164              R
   1     3   3     0     2     2             0.0198     0.0002047             R
   1     4   1     0     6     6             0.0200     0.0001802             R
   1     5   1     0     2     2             0.0200     3.762e-005            R
   1     6   1     0     2     2             0.0200     3.775e-005            R
   1     7   1     0     3     3             0.0201     4.918e-005            R
   1     8   1     0     2     2             0.0201     6.491e-005            R
   1     9   1     0     2     2             0.0202     9.918e-005            R
   1    10   1     0     3     3             0.0204     0.0001448             R
   1    11   1     0     2     2             0.0206     0.0002254             R
   1    12   1     0     4     4             0.0210     0.0003664             R
   1    13   1     0     3     3             0.0215     0.0005628             R
   1    14   1     0     3     3             0.0225     0.0009655             R
   1    15   1     0     3     3             0.0242     0.001706              R
   1    16   1     0     3     3             0.0273     0.003129              R
   1    17   1     0     3     3             0.0333     0.005931              R
   1    18   1     0     3     3             0.0445     0.01126               R
   1    19   1     0     3     3             0.0657     0.02115               R
   1    20   1     0     4     4             0.105      0.03944               R
   1    21   1U    0     3     3             0.105     -2.934                 R
   1    21   2     0     4     4             0.130      0.02529               R
   1    22   1U    0     3     3             0.130      16.77                 R
   1    22   2     0     3     3             0.145      0.01505               R
   1    23   1     0     4     4             0.169      0.02358               R
   1    24   1U    0     3     3             0.169     -7.893                 R
   1    24   2     0     3     3             0.183      0.01374               R
   1    25   1     0     4     4             0.204      0.02122               R
   1    26   1U    0     3     3             0.204     -9.520                 R
   1    26   2     0     3     3             0.216      0.01222               R
   1    27   1     0     4     4             0.235      0.01871               R
   1    28   1U    0     3     3             0.235     -11.82                 R
   1    28   2     0     3     3             0.246      0.01070               R
   1    29   1U    0     3     3             0.246      0.005445              R
   1    29   2     0     3     3             0.252      0.006077              R
   1    30   1     0     3     3             0.261      0.009185              R
   1    31   1     0     4     4             0.275      0.01394               R
   1    32   1U    0     3     3             0.275      2.132                 R
   1    32   2     0     3     3             0.283      0.007916              R
   1    33   1     0     4     4             0.295      0.01198               R
   1    34   1U    0     3     3             0.295      43.90                 R
   1    34   2     0     3     3             0.302      0.006789              R
   1    35   1     0     4     4             0.312      0.01026               R
   1    36   1U    0     3     3             0.312      72.82                 R
   1    36   2     0     3     3             0.318      0.005801              R
   1    37   1     0     4     4             0.326      0.008751              R
   1    38   1U    0     3     3             0.326     -9.677                 R
   1    38   2     0     3     3             0.332      0.005470              R
   1    39   1     0     4     4             0.340      0.008246              R
   1    40   1U    0     3     3             0.340     -9.664                 R
   1    40   2     0     4     4             0.348      0.008290              R
   1    41   1U    0     3     3             0.348     -9.624                 R
   1    41   2U    0     3     3             0.348     -9.622                 R
                          
 THE ANALYSIS HAS NOT BEEN COMPLETED
