1

   Abaqus 3DEXPERIENCE R2016x                                  Date 15-Jul-2020   Time 22:39:22
   For use at UNIVERSIDADE ESTADUAL DE CAMPINAS under license from Dassault Systemes or its subsidiary.



                         The Abaqus Software is a product of:

                           Dassault Systemes SIMULIA Corp.
                           1301 Atwood Avenue, Suite 101W
                              Johnston, RI 02919, USA
 


                   Available for internal use at UNIVERSIDADE ESTADUAL DE CAMPINAS. 
                   The Abaqus Online Support System is accessible
                   through the "My Support" section of the SIMULIA
                   Home Page at http://www.simulia.com.

                   Support policies for academic licenses are described
                   on the SIMULIA web site at
                   http://www.3ds.com/products/simulia/academics/
 
                          On machine despos01 
                          you are authorized to run
                          Abaqus/Standard until 29-Sep-2021

                          Your site id is: SIT00003270 


 
                    For assistance or any other information you may
                    obtain contact information for your local office
                    from the world wide web at:

                      http://www.3ds.com/products/simulia/locations/

 
                * * * * * * * * * * * * * * * * * * * * * * * * * * * * * * 
                *                                                         * 
                *                   *****************                     * 
                *                   *  N O T I C E  *                     * 
                *                   *****************                     * 
                *                                                         * 
                *                                                         * 
                *                    Abaqus 3DEXPERIENCE R2016x                                   * 
                *                                                         * 
                *          BUILD ID: 2015_09_24-17.31.09 126547           * 
                *                                                         * 
                *                                                         * 
                *  Please make sure you are using release 3DEXPERIENCE R2016x manuals    * 
                *  plus the notes accompanying this release.              * 
                *                                                         * 
                *                                                         * 
                *                                                         * 
                *                                                         * 
                *                                                         * 
                *   This program may not be used for commercial purposes  * 
                *           without payment of a commercial fee.          * 
                *                                                         * 
                * * * * * * * * * * * * * * * * * * * * * * * * * * * * * * 


 



     PROCESSING PART, INSTANCE, AND ASSEMBLY INFORMATION
   *******************************************************


     END PROCESSING PART, INSTANCE, AND ASSEMBLY INFORMATION
   ***********************************************************




     OPTIONS BEING PROCESSED
   ***************************


  *Heading
                                                                                                                                                                                                                                                                          
  *Node
  *Element, type=B21
  *Nset, nset=ASSEMBLY_PART-1-1_PORTICO
  *Elset, elset=ASSEMBLY_PART-1-1_PORTICO
  *Nset, nset=ASSEMBLY_APOIOS
  *Nset, nset=ASSEMBLY_NO_CENTRAL
  *material, name=STEEL
  *elastic
  *plastic
  *beamsection, elset=ASSEMBLY_PART-1-1_PORTICO, temperature=GRADIENTS, material=STEEL, section=I-BEAM
  *boundary
  *boundary
  *boundary
  *boundary
  *output, field
  *output, history
  *output, field
  *output, history
  *output, field
  *output, history
  *Step, name=STEP1, nlgeom=YES
  *output, field
  *output, history
  *Step, name=STEP1, nlgeom=YES
  *Step, name=STEP1, nlgeom=YES
  *static, riks
  *boundary
  *boundary
  *output, field
  *output, history
  *nodeoutput, nset=ASSEMBLY_NO_CENTRAL
  *nodeprint, nset=ASSEMBLY_NO_CENTRAL, frequency=1, summary=NO
  *endstep
  *Step, name=STEP1, nlgeom=YES
  *static, riks
  *boundary
  *boundary
  *endstep


                              E L E M E N T,   N O D E,   A N D   S U R F A C E   M A P S


**NOTE: This section may not include complete information about
        members of sets and surfaces. Use *PREPRINT, MODEL=YES 
        in order to get the set and surface members printed    
        under the following sections:                          
            - E L E M E N T   S E T S                          
            - N O D E   S E T S                                
            - S U R F A C E   D E F I N I T I O N S .          


Assembly name: ASSEMBLY
Number of instances: 1

ASSEMBLY LEVEL
  node sets:
    APOIOS:
      instance name: PART-1-1
      number of nodes: 2
      nodes: 
        1 3

    NO_CENTRAL:
      instance name: PART-1-1
      number of nodes: 1
      nodes: 
        2

  element sets:
  Surfaces:

INSTANCE LEVEL
  node sets:
    Instance name: PART-1-1
      node set name: PORTICO
        number of nodes: 21
        nodes: 
          1 2 3 4 5 6 7 8 9 10 11 12 13 14 15 16 17 18 19 20 21

  element sets:
    Instance name: PART-1-1
      element set name: PORTICO
        number of elements: 20
        elements: 
          1 2 3 4 5 6 7 8 9 10 11 12 13 14 15 16 17 18 19 20

  Surfaces:

GLOBAL TO LOCAL NODE AND ELEMENT MAPS
  Global     Local      
  node       node       
  number     number     
                        Instance name                                   
   1          1         PART-1-1                                        
   2          2         PART-1-1                                        
   3          3         PART-1-1                                        
   4          4         PART-1-1                                        
   5          5         PART-1-1                                        
   6          6         PART-1-1                                        
   7          7         PART-1-1                                        
   8          8         PART-1-1                                        
   9          9         PART-1-1                                        
   10         10        PART-1-1                                        
   11         11        PART-1-1                                        
   12         12        PART-1-1                                        
   13         13        PART-1-1                                        
   14         14        PART-1-1                                        
   15         15        PART-1-1                                        
   16         16        PART-1-1                                        
   17         17        PART-1-1                                        
   18         18        PART-1-1                                        
   19         19        PART-1-1                                        
   20         20        PART-1-1                                        
   21         21        PART-1-1                                        

  Global     Local      
  element    element    
  number     number     
                        Instance name                                   
   1          1         PART-1-1                                        
   2          2         PART-1-1                                        
   3          3         PART-1-1                                        
   4          4         PART-1-1                                        
   5          5         PART-1-1                                        
   6          6         PART-1-1                                        
   7          7         PART-1-1                                        
   8          8         PART-1-1                                        
   9          9         PART-1-1                                        
   10         10        PART-1-1                                        
   11         11        PART-1-1                                        
   12         12        PART-1-1                                        
   13         13        PART-1-1                                        
   14         14        PART-1-1                                        
   15         15        PART-1-1                                        
   16         16        PART-1-1                                        
   17         17        PART-1-1                                        
   18         18        PART-1-1                                        
   19         19        PART-1-1                                        
   20         20        PART-1-1                                        

LOCAL TO GLOBAL NODE AND ELEMENT MAPS
                                                  Local      Global     
                                                  node       node       
                                                  number     number
  Instance name
  PART-1-1                                         1          1         
  PART-1-1                                         2          2         
  PART-1-1                                         3          3         
  PART-1-1                                         4          4         
  PART-1-1                                         5          5         
  PART-1-1                                         6          6         
  PART-1-1                                         7          7         
  PART-1-1                                         8          8         
  PART-1-1                                         9          9         
  PART-1-1                                         10         10        
  PART-1-1                                         11         11        
  PART-1-1                                         12         12        
  PART-1-1                                         13         13        
  PART-1-1                                         14         14        
  PART-1-1                                         15         15        
  PART-1-1                                         16         16        
  PART-1-1                                         17         17        
  PART-1-1                                         18         18        
  PART-1-1                                         19         19        
  PART-1-1                                         20         20        
  PART-1-1                                         21         21        

                                                  Local      Global     
                                                  element    element    
                                                  number     number
  Instance name
  PART-1-1                                         1          1         
  PART-1-1                                         2          2         
  PART-1-1                                         3          3         
  PART-1-1                                         4          4         
  PART-1-1                                         5          5         
  PART-1-1                                         6          6         
  PART-1-1                                         7          7         
  PART-1-1                                         8          8         
  PART-1-1                                         9          9         
  PART-1-1                                         10         10        
  PART-1-1                                         11         11        
  PART-1-1                                         12         12        
  PART-1-1                                         13         13        
  PART-1-1                                         14         14        
  PART-1-1                                         15         15        
  PART-1-1                                         16         16        
  PART-1-1                                         17         17        
  PART-1-1                                         18         18        
  PART-1-1                                         19         19        
  PART-1-1                                         20         20        




                            P R O B L E M   S I Z E


          NUMBER OF ELEMENTS IS                                    20
          NUMBER OF NODES IS                                       61
          NUMBER OF NODES DEFINED BY THE USER                      21
          NUMBER OF INTERNAL NODES GENERATED BY THE PROGRAM        40
          TOTAL NUMBER OF VARIABLES IN THE MODEL                   63
          (DEGREES OF FREEDOM PLUS MAX NO. OF ANY LAGRANGE MULTIPLIER
           VARIABLES. INCLUDE *PRINT,SOLVE=YES TO GET THE ACTUAL NUMBER.)



                              END OF USER INPUT PROCESSING



     JOB TIME SUMMARY
       USER TIME (SEC)      =  0.10000    
       SYSTEM TIME (SEC)    =   0.0000    
       TOTAL CPU TIME (SEC) =  0.10000    
       WALLCLOCK TIME (SEC) =          0
1

   Abaqus 3DEXPERIENCE R2016x                                  Date 15-Jul-2020   Time 22:39:24
   For use at UNIVERSIDADE ESTADUAL DE CAMPINAS under license from Dassault Systemes or its subsidiary.

                                                                                               STEP    1  INCREMENT    1
                                                                                          TIME COMPLETED IN THIS STEP   0.00    


                        S T E P       1     S T A T I C   A N A L Y S I S


                                                                                          

     AUTOMATIC LOAD CONTROL WITH -
          A SUGGESTED INITIAL INCREMENT IN ARC LENGTH            1.00    
          AND A TOTAL ARC LENGTH SCALE FACTOR OF                 1.00    
          THE MINIMUM ARC LENGTH INCREMENT ALLOWED IS           1.000E-03
          THE MAXIMUM ARC LENGTH INCREMENT ALLOWED IS           1.000E+36

     LINEAR EQUATION SOLVER TYPE         DIRECT SPARSE

     MODIFIED RIKS METHOD IS USED - AMPLITUDE REFERENCES ARE IGNORED

          LARGE DISPLACEMENT THEORY WILL BE USED
  
                   M E M O R Y   E S T I M A T E
  
 PROCESS      FLOATING PT       MINIMUM MEMORY        MEMORY TO
              OPERATIONS           REQUIRED          MINIMIZE I/O
             PER ITERATION           (MB)               (MB)
  
     1         3.25E+003               17                 24
  
 NOTE:
      (1) SINCE ABAQUS DOES NOT PRE-ALLOCATE MEMORY AND ONLY ALLOCATES MEMORY AS NEEDED DURING THE ANALYSIS,
          THE MEMORY REQUIREMENT PRINTED HERE CAN ONLY BE VIEWED AS A GENERAL GUIDELINE BASED ON THE BEST
          KNOWLEDGE AVAILABLE AT THE BEGINNING OF A STEP BEFORE THE SOLUTION PROCESS HAS BEGUN.
      (2) THE ESTIMATE IS NORMALLY UPDATED AT THE BEGINNING OF EVERY STEP. IT IS THE MAXIMUM VALUE OF THE
          ESTIMATE FROM THE CURRENT STEP TO THE LAST STEP OF THE ANALYSIS, WITH UNSYMMETRIC SOLUTION TAKEN
          INTO ACCOUNT IF APPLICABLE. 
      (3) SINCE THE ESTIMATE IS BASED ON THE ACTIVE DEGREES OF FREEDOM IN THE FIRST ITERATION OF THE 
          CURRENT STEP, THE MEMORY ESTIMATE MIGHT BE SIGNIFICANTLY DIFFERENT THAN ACTUAL USAGE FOR 
          PROBLEMS WITH SUBSTANTIAL CHANGES IN ACTIVE DEGREES OF FREEDOM BETWEEN STEPS (OR EVEN WITHIN
          THE SAME STEP). EXAMPLES ARE: PROBLEMS WITH SIGNIFICANT CONTACT CHANGES, PROBLEMS WITH MODEL
          CHANGE, PROBLEMS WITH BOTH STATIC STEP AND STEADY STATE DYNAMIC PROCEDURES WHERE ACOUSTIC 
          ELEMENTS WILL ONLY BE ACTIVATED IN THE STEADY STATE DYNAMIC STEPS.
      (4) FOR MULTI-PROCESS EXECUTION, THE ESTIMATED VALUE OF FLOATING POINT OPERATIONS FOR EACH PROCESS
          IS BASED ON AN INITIAL SCHEDULING OF OPERATIONS AND MIGHT NOT REFLECT THE ACTUAL FLOATING 
          POINT OPERATIONS COMPLETED ON EACH PROCESS. OPERATIONS ARE DYNAMICALLY BALANCED DURING EXECUTION, 
          SO THE ACTUAL BALANCE OF OPERATIONS BETWEEN PROCESSES IS EXPECTED TO BE BETTER THAN THE ESTIMATE
          PRINTED HERE.
      (5) THE UPPER LIMIT OF MEMORY THAT CAN BE ALLOCATED BY ABAQUS WILL IN GENERAL DEPEND ON THE VALUE OF
          THE "MEMORY" PARAMETER AND THE AMOUNT OF PHYSICAL MEMORY AVAILABLE ON THE MACHINE. PLEASE SEE
          THE "ABAQUS ANALYSIS USER'S MANUAL" FOR MORE DETAILS. THE ACTUAL USAGE OF MEMORY AND OF DISK
          SPACE FOR SCRATCH DATA WILL DEPEND ON THIS UPPER LIMIT AS WELL AS THE MEMORY REQUIRED TO MINIMIZE
          I/O. IF THE MEMORY UPPER LIMIT IS GREATER THAN THE MEMORY REQUIRED TO MINIMIZE I/O, THEN THE ACTUAL
          MEMORY USAGE WILL BE CLOSE TO THE ESTIMATED "MEMORY TO MINIMIZE I/O" VALUE, AND THE SCRATCH DISK
          USAGE WILL BE CLOSE-TO-ZERO; OTHERWISE, THE ACTUAL MEMORY USED WILL BE CLOSE TO THE PREVIOUSLY
          MENTIONED MEMORY LIMIT, AND THE SCRATCH DISK USAGE WILL BE ROUGHLY PROPORTIONAL TO THE DIFFERENCE
          BETWEEN THE ESTIMATED "MEMORY TO MINIMIZE I/O" AND THE MEMORY UPPER LIMIT. HOWEVER ACCURATE
          ESTIMATE OF THE SCRATCH DISK SPACE IS NOT POSSIBLE.
      (6) USING "*RESTART, WRITE" CAN GENERATE A LARGE AMOUNT OF DATA WRITTEN IN THE WORK DIRECTORY.


                                INCREMENT     1 SUMMARY


     CURRENT LOAD PROPORTIONALITY FACTOR         1.5677E-02
     TOTAL ARC LENGTH   6.250E-02, INCREMENT OF ARC LENGTH   6.250E-02
  
  
  
  
                                       N O D E   O U T P U T
  
  
  
  
   THE FOLLOWING TABLE IS PRINTED FOR NODES BELONGING TO NODE SET ASSEMBLY_NO_CENTRAL
  
       NODE FOOT-  U2             RF2          
            NOTE
  
         2     -1.1757563E+01 -1.6837436E+07 


                                INCREMENT     2 SUMMARY


     CURRENT LOAD PROPORTIONALITY FACTOR         1.9573E-02
     TOTAL ARC LENGTH   7.812E-02, INCREMENT OF ARC LENGTH   1.562E-02
  
  
  
  
                                       N O D E   O U T P U T
  
  
  
  
   THE FOLLOWING TABLE IS PRINTED FOR NODES BELONGING TO NODE SET ASSEMBLY_NO_CENTRAL
  
       NODE FOOT-  U2             RF2          
            NOTE
  
         2     -1.4679731E+01 -2.1019855E+07 


                                INCREMENT     3 SUMMARY


     CURRENT LOAD PROPORTIONALITY FACTOR         1.9778E-02
     TOTAL ARC LENGTH   7.959E-02, INCREMENT OF ARC LENGTH   1.465E-03
  
  
  
  
                                       N O D E   O U T P U T
  
  
  
  
   THE FOLLOWING TABLE IS PRINTED FOR NODES BELONGING TO NODE SET ASSEMBLY_NO_CENTRAL
  
       NODE FOOT-  U2             RF2          
            NOTE
  
         2     -1.4833277E+01 -2.1239541E+07 


                                INCREMENT     4 SUMMARY


     CURRENT LOAD PROPORTIONALITY FACTOR         1.9958E-02
     TOTAL ARC LENGTH   8.179E-02, INCREMENT OF ARC LENGTH   2.197E-03
  
  
  
  
                                       N O D E   O U T P U T
  
  
  
  
   THE FOLLOWING TABLE IS PRINTED FOR NODES BELONGING TO NODE SET ASSEMBLY_NO_CENTRAL
  
       NODE FOOT-  U2             RF2          
            NOTE
  
         2     -1.4968452E+01 -2.1320272E+07 


                                INCREMENT     5 SUMMARY


     CURRENT LOAD PROPORTIONALITY FACTOR         1.9996E-02
     TOTAL ARC LENGTH   8.398E-02, INCREMENT OF ARC LENGTH   2.197E-03
  
  
  
  
                                       N O D E   O U T P U T
  
  
  
  
   THE FOLLOWING TABLE IS PRINTED FOR NODES BELONGING TO NODE SET ASSEMBLY_NO_CENTRAL
  
       NODE FOOT-  U2             RF2          
            NOTE
  
         2     -1.4996663E+01 -2.1313802E+07 


                                INCREMENT     6 SUMMARY


     CURRENT LOAD PROPORTIONALITY FACTOR         2.0033E-02
     TOTAL ARC LENGTH   8.618E-02, INCREMENT OF ARC LENGTH   2.197E-03
  
  
  
  
                                       N O D E   O U T P U T
  
  
  
  
   THE FOLLOWING TABLE IS PRINTED FOR NODES BELONGING TO NODE SET ASSEMBLY_NO_CENTRAL
  
       NODE FOOT-  U2             RF2          
            NOTE
  
         2     -1.5024980E+01 -2.1307352E+07 


                                INCREMENT     7 SUMMARY


     CURRENT LOAD PROPORTIONALITY FACTOR         2.0082E-02
     TOTAL ARC LENGTH   8.948E-02, INCREMENT OF ARC LENGTH   3.296E-03
  
  
  
  
                                       N O D E   O U T P U T
  
  
  
  
   THE FOLLOWING TABLE IS PRINTED FOR NODES BELONGING TO NODE SET ASSEMBLY_NO_CENTRAL
  
       NODE FOOT-  U2             RF2          
            NOTE
  
         2     -1.5061861E+01 -2.1287020E+07 


                                INCREMENT     8 SUMMARY


     CURRENT LOAD PROPORTIONALITY FACTOR         2.0147E-02
     TOTAL ARC LENGTH   9.442E-02, INCREMENT OF ARC LENGTH   4.944E-03
  
  
  
  
                                       N O D E   O U T P U T
  
  
  
  
   THE FOLLOWING TABLE IS PRINTED FOR NODES BELONGING TO NODE SET ASSEMBLY_NO_CENTRAL
  
       NODE FOOT-  U2             RF2          
            NOTE
  
         2     -1.5110547E+01 -2.1244204E+07 


                                INCREMENT     9 SUMMARY


     CURRENT LOAD PROPORTIONALITY FACTOR         2.0247E-02
     TOTAL ARC LENGTH   0.102    , INCREMENT OF ARC LENGTH   7.416E-03
  
  
  
  
                                       N O D E   O U T P U T
  
  
  
  
   THE FOLLOWING TABLE IS PRINTED FOR NODES BELONGING TO NODE SET ASSEMBLY_NO_CENTRAL
  
       NODE FOOT-  U2             RF2          
            NOTE
  
         2     -1.5184934E+01 -2.1180520E+07 


                                INCREMENT    10 SUMMARY


     CURRENT LOAD PROPORTIONALITY FACTOR         2.0391E-02
     TOTAL ARC LENGTH   0.113    , INCREMENT OF ARC LENGTH   1.112E-02
  
  
  
  
                                       N O D E   O U T P U T
  
  
  
  
   THE FOLLOWING TABLE IS PRINTED FOR NODES BELONGING TO NODE SET ASSEMBLY_NO_CENTRAL
  
       NODE FOOT-  U2             RF2          
            NOTE
  
         2     -1.5293515E+01 -2.1069602E+07 


                                INCREMENT    11 SUMMARY


     CURRENT LOAD PROPORTIONALITY FACTOR         2.0617E-02
     TOTAL ARC LENGTH   0.130    , INCREMENT OF ARC LENGTH   1.669E-02
  
  
  
  
                                       N O D E   O U T P U T
  
  
  
  
   THE FOLLOWING TABLE IS PRINTED FOR NODES BELONGING TO NODE SET ASSEMBLY_NO_CENTRAL
  
       NODE FOOT-  U2             RF2          
            NOTE
  
         2     -1.5462574E+01 -2.0905088E+07 


                                INCREMENT    12 SUMMARY


     CURRENT LOAD PROPORTIONALITY FACTOR         2.0983E-02
     TOTAL ARC LENGTH   0.155    , INCREMENT OF ARC LENGTH   2.503E-02
  
  
  
  
                                       N O D E   O U T P U T
  
  
  
  
   THE FOLLOWING TABLE IS PRINTED FOR NODES BELONGING TO NODE SET ASSEMBLY_NO_CENTRAL
  
       NODE FOOT-  U2             RF2          
            NOTE
  
         2     -1.5737352E+01 -2.0582879E+07 


                                INCREMENT    13 SUMMARY


     CURRENT LOAD PROPORTIONALITY FACTOR         2.1546E-02
     TOTAL ARC LENGTH   0.192    , INCREMENT OF ARC LENGTH   3.754E-02
  
  
  
  
                                       N O D E   O U T P U T
  
  
  
  
   THE FOLLOWING TABLE IS PRINTED FOR NODES BELONGING TO NODE SET ASSEMBLY_NO_CENTRAL
  
       NODE FOOT-  U2             RF2          
            NOTE
  
         2     -1.6159419E+01 -2.0143130E+07 


                                INCREMENT    14 SUMMARY


     CURRENT LOAD PROPORTIONALITY FACTOR         2.2511E-02
     TOTAL ARC LENGTH   0.249    , INCREMENT OF ARC LENGTH   5.631E-02
  
  
  
  
                                       N O D E   O U T P U T
  
  
  
  
   THE FOLLOWING TABLE IS PRINTED FOR NODES BELONGING TO NODE SET ASSEMBLY_NO_CENTRAL
  
       NODE FOOT-  U2             RF2          
            NOTE
  
         2     -1.6883533E+01 -1.9523552E+07 


                                INCREMENT    15 SUMMARY


     CURRENT LOAD PROPORTIONALITY FACTOR         2.4218E-02
     TOTAL ARC LENGTH   0.333    , INCREMENT OF ARC LENGTH   8.447E-02
  
  
  
  
                                       N O D E   O U T P U T
  
  
  
  
   THE FOLLOWING TABLE IS PRINTED FOR NODES BELONGING TO NODE SET ASSEMBLY_NO_CENTRAL
  
       NODE FOOT-  U2             RF2          
            NOTE
  
         2     -1.8163298E+01 -1.8674708E+07 


                                INCREMENT    16 SUMMARY


     CURRENT LOAD PROPORTIONALITY FACTOR         2.7346E-02
     TOTAL ARC LENGTH   0.460    , INCREMENT OF ARC LENGTH   0.127    
  
  
  
  
                                       N O D E   O U T P U T
  
  
  
  
   THE FOLLOWING TABLE IS PRINTED FOR NODES BELONGING TO NODE SET ASSEMBLY_NO_CENTRAL
  
       NODE FOOT-  U2             RF2          
            NOTE
  
         2     -2.0509697E+01 -1.7515829E+07 


                                INCREMENT    17 SUMMARY


     CURRENT LOAD PROPORTIONALITY FACTOR         3.3277E-02
     TOTAL ARC LENGTH   0.650    , INCREMENT OF ARC LENGTH   0.190    
  
  
  
  
                                       N O D E   O U T P U T
  
  
  
  
   THE FOLLOWING TABLE IS PRINTED FOR NODES BELONGING TO NODE SET ASSEMBLY_NO_CENTRAL
  
       NODE FOOT-  U2             RF2          
            NOTE
  
         2     -2.4957722E+01 -1.5959011E+07 


                                INCREMENT    18 SUMMARY


     CURRENT LOAD PROPORTIONALITY FACTOR         4.4536E-02
     TOTAL ARC LENGTH   0.935    , INCREMENT OF ARC LENGTH   0.285    
  
  
  
  
                                       N O D E   O U T P U T
  
  
  
  
   THE FOLLOWING TABLE IS PRINTED FOR NODES BELONGING TO NODE SET ASSEMBLY_NO_CENTRAL
  
       NODE FOOT-  U2             RF2          
            NOTE
  
         2     -3.3401784E+01 -1.4058086E+07 


                                INCREMENT    19 SUMMARY


     CURRENT LOAD PROPORTIONALITY FACTOR         6.5681E-02
     TOTAL ARC LENGTH    1.36    , INCREMENT OF ARC LENGTH   0.428    
  
  
  
  
                                       N O D E   O U T P U T
  
  
  
  
   THE FOLLOWING TABLE IS PRINTED FOR NODES BELONGING TO NODE SET ASSEMBLY_NO_CENTRAL
  
       NODE FOOT-  U2             RF2          
            NOTE
  
         2     -4.9260985E+01 -1.1951422E+07 


                                INCREMENT    20 SUMMARY


     CURRENT LOAD PROPORTIONALITY FACTOR         0.1051    
     TOTAL ARC LENGTH    2.00    , INCREMENT OF ARC LENGTH   0.641    
  
  
  
  
                                       N O D E   O U T P U T
  
  
  
  
   THE FOLLOWING TABLE IS PRINTED FOR NODES BELONGING TO NODE SET ASSEMBLY_NO_CENTRAL
  
       NODE FOOT-  U2             RF2          
            NOTE
  
         2     -7.8839934E+01 -9.7736717E+06 


                                INCREMENT    21 SUMMARY


     CURRENT LOAD PROPORTIONALITY FACTOR         0.1304    
     TOTAL ARC LENGTH    2.24    , INCREMENT OF ARC LENGTH   0.241    
  
  
  
  
                                       N O D E   O U T P U T
  
  
  
  
   THE FOLLOWING TABLE IS PRINTED FOR NODES BELONGING TO NODE SET ASSEMBLY_NO_CENTRAL
  
       NODE FOOT-  U2             RF2          
            NOTE
  
         2     -9.7807208E+01 -8.8841946E+06 


                                INCREMENT    22 SUMMARY


     CURRENT LOAD PROPORTIONALITY FACTOR         0.1455    
     TOTAL ARC LENGTH    2.33    , INCREMENT OF ARC LENGTH   9.020E-02
  
  
  
  
                                       N O D E   O U T P U T
  
  
  
  
   THE FOLLOWING TABLE IS PRINTED FOR NODES BELONGING TO NODE SET ASSEMBLY_NO_CENTRAL
  
       NODE FOOT-  U2             RF2          
            NOTE
  
         2     -1.0909543E+02 -8.4569959E+06 


                                INCREMENT    23 SUMMARY


     CURRENT LOAD PROPORTIONALITY FACTOR         0.1690    
     TOTAL ARC LENGTH    2.47    , INCREMENT OF ARC LENGTH   0.135    
  
  
  
  
                                       N O D E   O U T P U T
  
  
  
  
   THE FOLLOWING TABLE IS PRINTED FOR NODES BELONGING TO NODE SET ASSEMBLY_NO_CENTRAL
  
       NODE FOOT-  U2             RF2          
            NOTE
  
         2     -1.2678365E+02 -7.8939998E+06 


                                INCREMENT    24 SUMMARY


     CURRENT LOAD PROPORTIONALITY FACTOR         0.1828    
     TOTAL ARC LENGTH    2.52    , INCREMENT OF ARC LENGTH   5.074E-02
  
  
  
  
                                       N O D E   O U T P U T
  
  
  
  
   THE FOLLOWING TABLE IS PRINTED FOR NODES BELONGING TO NODE SET ASSEMBLY_NO_CENTRAL
  
       NODE FOOT-  U2             RF2          
            NOTE
  
         2     -1.3709179E+02 -7.6121749E+06 


                                INCREMENT    25 SUMMARY


     CURRENT LOAD PROPORTIONALITY FACTOR         0.2040    
     TOTAL ARC LENGTH    2.60    , INCREMENT OF ARC LENGTH   7.611E-02
  
  
  
  
                                       N O D E   O U T P U T
  
  
  
  
   THE FOLLOWING TABLE IS PRINTED FOR NODES BELONGING TO NODE SET ASSEMBLY_NO_CENTRAL
  
       NODE FOOT-  U2             RF2          
            NOTE
  
         2     -1.5300510E+02 -7.2285749E+06 


                                INCREMENT    26 SUMMARY


     CURRENT LOAD PROPORTIONALITY FACTOR         0.2162    
     TOTAL ARC LENGTH    2.63    , INCREMENT OF ARC LENGTH   2.854E-02
  
  
  
  
                                       N O D E   O U T P U T
  
  
  
  
   THE FOLLOWING TABLE IS PRINTED FOR NODES BELONGING TO NODE SET ASSEMBLY_NO_CENTRAL
  
       NODE FOOT-  U2             RF2          
            NOTE
  
         2     -1.6217260E+02 -7.0311990E+06 


                                INCREMENT    27 SUMMARY


     CURRENT LOAD PROPORTIONALITY FACTOR         0.2349    
     TOTAL ARC LENGTH    2.67    , INCREMENT OF ARC LENGTH   4.281E-02
  
  
  
  
                                       N O D E   O U T P U T
  
  
  
  
   THE FOLLOWING TABLE IS PRINTED FOR NODES BELONGING TO NODE SET ASSEMBLY_NO_CENTRAL
  
       NODE FOOT-  U2             RF2          
            NOTE
  
         2     -1.7620323E+02 -6.7564019E+06 


                                INCREMENT    28 SUMMARY


     CURRENT LOAD PROPORTIONALITY FACTOR         0.2456    
     TOTAL ARC LENGTH    2.68    , INCREMENT OF ARC LENGTH   1.605E-02
  
  
  
  
                                       N O D E   O U T P U T
  
  
  
  
   THE FOLLOWING TABLE IS PRINTED FOR NODES BELONGING TO NODE SET ASSEMBLY_NO_CENTRAL
  
       NODE FOOT-  U2             RF2          
            NOTE
  
         2     -1.8422974E+02 -6.6122671E+06 


                                INCREMENT    29 SUMMARY


     CURRENT LOAD PROPORTIONALITY FACTOR         0.2517    
     TOTAL ARC LENGTH    2.69    , INCREMENT OF ARC LENGTH   6.020E-03
  
  
  
  
                                       N O D E   O U T P U T
  
  
  
  
   THE FOLLOWING TABLE IS PRINTED FOR NODES BELONGING TO NODE SET ASSEMBLY_NO_CENTRAL
  
       NODE FOOT-  U2             RF2          
            NOTE
  
         2     -1.8878713E+02 -6.5340696E+06 


                                INCREMENT    30 SUMMARY


     CURRENT LOAD PROPORTIONALITY FACTOR         0.2609    
     TOTAL ARC LENGTH    2.70    , INCREMENT OF ARC LENGTH   9.031E-03
  
  
  
  
                                       N O D E   O U T P U T
  
  
  
  
   THE FOLLOWING TABLE IS PRINTED FOR NODES BELONGING TO NODE SET ASSEMBLY_NO_CENTRAL
  
       NODE FOOT-  U2             RF2          
            NOTE
  
         2     -1.9567595E+02 -6.4206990E+06 


                                INCREMENT    31 SUMMARY


     CURRENT LOAD PROPORTIONALITY FACTOR         0.2748    
     TOTAL ARC LENGTH    2.71    , INCREMENT OF ARC LENGTH   1.355E-02
  
  
  
  
                                       N O D E   O U T P U T
  
  
  
  
   THE FOLLOWING TABLE IS PRINTED FOR NODES BELONGING TO NODE SET ASSEMBLY_NO_CENTRAL
  
       NODE FOOT-  U2             RF2          
            NOTE
  
         2     -2.0612866E+02 -6.2584966E+06 


                                INCREMENT    32 SUMMARY


     CURRENT LOAD PROPORTIONALITY FACTOR         0.2828    
     TOTAL ARC LENGTH    2.72    , INCREMENT OF ARC LENGTH   5.080E-03
  
  
  
  
                                       N O D E   O U T P U T
  
  
  
  
   THE FOLLOWING TABLE IS PRINTED FOR NODES BELONGING TO NODE SET ASSEMBLY_NO_CENTRAL
  
       NODE FOOT-  U2             RF2          
            NOTE
  
         2     -2.1206556E+02 -6.1713985E+06 


                                INCREMENT    33 SUMMARY


     CURRENT LOAD PROPORTIONALITY FACTOR         0.2947    
     TOTAL ARC LENGTH    2.73    , INCREMENT OF ARC LENGTH   7.620E-03
  
  
  
  
                                       N O D E   O U T P U T
  
  
  
  
   THE FOLLOWING TABLE IS PRINTED FOR NODES BELONGING TO NODE SET ASSEMBLY_NO_CENTRAL
  
       NODE FOOT-  U2             RF2          
            NOTE
  
         2     -2.2105090E+02 -6.0454844E+06 


                                INCREMENT    34 SUMMARY


     CURRENT LOAD PROPORTIONALITY FACTOR         0.3015    
     TOTAL ARC LENGTH    2.73    , INCREMENT OF ARC LENGTH   2.857E-03
  
  
  
  
                                       N O D E   O U T P U T
  
  
  
  
   THE FOLLOWING TABLE IS PRINTED FOR NODES BELONGING TO NODE SET ASSEMBLY_NO_CENTRAL
  
       NODE FOOT-  U2             RF2          
            NOTE
  
         2     -2.2614253E+02 -5.9773226E+06 


                                INCREMENT    35 SUMMARY


     CURRENT LOAD PROPORTIONALITY FACTOR         0.3118    
     TOTAL ARC LENGTH    2.73    , INCREMENT OF ARC LENGTH   4.286E-03
  
  
  
  
                                       N O D E   O U T P U T
  
  
  
  
   THE FOLLOWING TABLE IS PRINTED FOR NODES BELONGING TO NODE SET ASSEMBLY_NO_CENTRAL
  
       NODE FOOT-  U2             RF2          
            NOTE
  
         2     -2.3383397E+02 -5.8780151E+06 


                                INCREMENT    36 SUMMARY


     CURRENT LOAD PROPORTIONALITY FACTOR         0.3176    
     TOTAL ARC LENGTH    2.73    , INCREMENT OF ARC LENGTH   1.607E-03
  
  
  
  
                                       N O D E   O U T P U T
  
  
  
  
   THE FOLLOWING TABLE IS PRINTED FOR NODES BELONGING TO NODE SET ASSEMBLY_NO_CENTRAL
  
       NODE FOOT-  U2             RF2          
            NOTE
  
         2     -2.3818501E+02 -5.8239198E+06 


                                INCREMENT    37 SUMMARY


     CURRENT LOAD PROPORTIONALITY FACTOR         0.3263    
     TOTAL ARC LENGTH    2.74    , INCREMENT OF ARC LENGTH   2.411E-03
  
  
  
  
                                       N O D E   O U T P U T
  
  
  
  
   THE FOLLOWING TABLE IS PRINTED FOR NODES BELONGING TO NODE SET ASSEMBLY_NO_CENTRAL
  
       NODE FOOT-  U2             RF2          
            NOTE
  
         2     -2.4474856E+02 -5.7446165E+06 


                                INCREMENT    38 SUMMARY


     CURRENT LOAD PROPORTIONALITY FACTOR         0.3318    
     TOTAL ARC LENGTH    2.74    , INCREMENT OF ARC LENGTH   1.000E-03
  
  
  
  
                                       N O D E   O U T P U T
  
  
  
  
   THE FOLLOWING TABLE IS PRINTED FOR NODES BELONGING TO NODE SET ASSEMBLY_NO_CENTRAL
  
       NODE FOOT-  U2             RF2          
            NOTE
  
         2     -2.4885106E+02 -5.6966471E+06 


                                INCREMENT    39 SUMMARY


     CURRENT LOAD PROPORTIONALITY FACTOR         0.3400    
     TOTAL ARC LENGTH    2.74    , INCREMENT OF ARC LENGTH   1.500E-03
  
  
  
  
                                       N O D E   O U T P U T
  
  
  
  
   THE FOLLOWING TABLE IS PRINTED FOR NODES BELONGING TO NODE SET ASSEMBLY_NO_CENTRAL
  
       NODE FOOT-  U2             RF2          
            NOTE
  
         2     -2.5503592E+02 -5.6261241E+06 


                                INCREMENT    40 SUMMARY


     CURRENT LOAD PROPORTIONALITY FACTOR         0.3483    
     TOTAL ARC LENGTH    2.74    , INCREMENT OF ARC LENGTH   1.000E-03
  
  
  
  
                                       N O D E   O U T P U T
  
  
  
  
   THE FOLLOWING TABLE IS PRINTED FOR NODES BELONGING TO NODE SET ASSEMBLY_NO_CENTRAL
  
       NODE FOOT-  U2             RF2          
            NOTE
  
         2     -2.6125331E+02 -5.5576352E+06 


                                INCREMENT    41 SUMMARY


     CURRENT LOAD PROPORTIONALITY FACTOR         0.3483    
     TOTAL ARC LENGTH    2.74    , INCREMENT OF ARC LENGTH   1.000E-35
  
  
  
  
                                       N O D E   O U T P U T
  
  
  
  
   THE FOLLOWING TABLE IS PRINTED FOR NODES BELONGING TO NODE SET ASSEMBLY_NO_CENTRAL
  
       NODE FOOT-  U2             RF2          
            NOTE
  
         2     -2.6125331E+02 -5.5576352E+06 



                              ANALYSIS COMPLETE
                              WITH      2 ERROR MESSAGES ON THE MSG FILE
                              AND      80 WARNING MESSAGES ON THE MSG FILE
                                        1 WARNINGS ARE FOR NUMERICAL PROBLEMS
                                       31 WARNINGS ARE FOR NEGATIVE EIGENVALUES



     JOB TIME SUMMARY
       USER TIME (SEC)      =   1.6000    
       SYSTEM TIME (SEC)    =  0.30000    
       TOTAL CPU TIME (SEC) =   1.9000    
       WALLCLOCK TIME (SEC) =          1
